Version 4
SHEET 1 880 1256
WIRE 144 16 144 -16
WIRE 592 16 432 16
WIRE 384 64 336 64
WIRE -208 96 -208 64
WIRE 512 96 512 80
WIRE 432 112 432 16
WIRE 480 112 432 112
WIRE -16 128 -64 128
WIRE 592 128 592 16
WIRE 592 128 544 128
WIRE 624 128 592 128
WIRE 480 144 336 144
WIRE -16 160 -64 160
WIRE 384 192 336 192
WIRE -208 208 -208 176
WIRE -400 336 -400 304
WIRE -304 336 -304 304
WIRE 80 368 80 304
WIRE 144 368 144 304
WIRE -400 432 -400 416
WIRE -304 432 -304 416
FLAG 144 368 0
FLAG -400 432 0
FLAG -304 432 0
FLAG -400 304 3V3
FLAG -304 304 1V65
FLAG 144 -16 3V3
FLAG 80 368 1V65
FLAG -208 64 IN+
FLAG -208 208 IN-
FLAG -64 160 IN+
FLAG -64 128 IN-
FLAG 512 160 0
FLAG 512 80 3V3
SYMBOL Opamps\\LT1990 160 144 R0
SYMATTR InstName U1
SYMBOL Opamps\\opamp2 512 64 R0
SYMATTR InstName U2
SYMATTR Value OPA340
SYMBOL voltage -208 80 R0
WINDOW 3 24 152 Invisible 2
WINDOW 39 0 0 Left 2
SYMATTR InstName V1
SYMATTR Value SINE(0 1 1000)
SYMATTR Value2 AC 1
SYMBOL voltage -400 320 R0
WINDOW 123 0 0 Left 2
WINDOW 39 0 0 Left 2
SYMATTR InstName V2
SYMATTR Value 3.3
SYMBOL voltage -304 320 R0
WINDOW 123 0 0 Left 2
WINDOW 39 0 0 Left 2
SYMATTR InstName V3
SYMATTR Value 1.65
TEXT -168 480 Left 2 !;ac dec 100 1 10Meg
TEXT -168 512 Left 2 !.lib OPA340.LIB
TEXT -160 448 Left 2 !.tran 1m
