Version 4
SHEET 1 1396 680
WIRE 736 -80 592 -80
WIRE 848 -80 816 -80
WIRE 880 -80 848 -80
WIRE 992 -80 960 -80
WIRE 928 0 784 0
WIRE 592 16 592 -80
WIRE 720 16 592 16
WIRE -384 32 -768 32
WIRE 848 32 848 -80
WIRE 848 32 784 32
WIRE 592 48 592 16
WIRE 752 64 752 48
WIRE -384 96 -384 32
WIRE -16 112 -16 0
WIRE 816 128 688 128
WIRE -448 160 -528 160
WIRE -896 176 -896 128
WIRE -592 176 -608 176
WIRE -496 192 -528 192
WIRE -448 192 -448 160
WIRE -384 192 -384 176
WIRE -384 192 -448 192
WIRE 752 192 752 176
WIRE 688 208 688 128
WIRE 720 208 688 208
WIRE -384 224 -384 192
WIRE 816 224 816 128
WIRE 816 224 784 224
WIRE 832 224 816 224
WIRE 928 224 928 0
WIRE 928 224 912 224
WIRE 960 224 928 224
WIRE 1088 224 1040 224
WIRE 592 240 592 128
WIRE 720 240 592 240
WIRE -608 272 -896 176
WIRE -608 272 -608 176
WIRE -496 272 -496 192
WIRE -496 272 -608 272
WIRE 592 304 592 240
WIRE 720 304 592 304
WIRE -16 336 -16 192
WIRE 592 336 592 304
FLAG -16 336 0
FLAG -16 0 Vcc
FLAG 752 176 Vcc
FLAG 752 64 Vcc
FLAG 1088 224 OUT1
FLAG 752 -16 0
FLAG 752 256 0
FLAG 992 -80 0
FLAG 592 416 0
FLAG -560 208 Vcc
FLAG -560 144 0
FLAG -384 304 0
FLAG -1024 32 Vcc
SYMBOL voltage -16 96 R0
WINDOW 123 0 0 Left 2
WINDOW 39 0 0 Left 2
SYMATTR InstName V1
SYMATTR Value 5
SYMBOL res 816 240 R270
WINDOW 0 32 56 VTop 2
WINDOW 3 0 56 VBottom 2
SYMATTR InstName R1
SYMATTR Value 25k
SYMBOL res 944 240 R270
WINDOW 0 32 56 VTop 2
WINDOW 3 0 56 VBottom 2
SYMATTR InstName R2
SYMATTR Value 25k
SYMBOL res 864 -64 R270
WINDOW 0 32 56 VTop 2
WINDOW 3 0 56 VBottom 2
SYMATTR InstName R3
SYMATTR Value 25k
SYMBOL res 720 -64 R270
WINDOW 0 32 56 VTop 2
WINDOW 3 0 56 VBottom 2
SYMATTR InstName R4
SYMATTR Value 25k
SYMBOL res 576 32 R0
SYMATTR InstName R5
SYMATTR Value 2k5
SYMBOL res 576 320 R0
SYMATTR InstName RTC
SYMATTR Value {R}
SYMBOL Opamps\\OP37 752 80 R180
SYMATTR InstName U3
SYMBOL Opamps\\OP37 752 160 R0
SYMATTR InstName U4
SYMBOL res -400 80 R0
SYMATTR InstName R6
SYMATTR Value 5k
SYMBOL res -400 208 R0
SYMATTR InstName RTC1
SYMATTR Value {R}
SYMBOL PowerProducts\\LT1086-3.3 -896 32 R0
SYMATTR InstName U2
SYMBOL Opamps\\opamp2 -560 240 R180
SYMATTR InstName U1
SYMATTR Value OPA340
SYMATTR SpiceModel OPA340
TEXT 32 -352 Left 2 !.step param Temp1 0 150 1\n.inc OPA340.LIB\n.param TK=273.15\n.param T0=TK+25\n.param R=100*(1+Temp1*0.00385)\n.op\n;tran 0.1 startup
