Version 4
SHEET 1 1396 680
WIRE 416 -224 416 -352
WIRE -448 -176 -656 -176
WIRE -656 -112 -656 -176
WIRE 416 -96 416 -144
WIRE 480 -96 416 -96
WIRE 640 -96 560 -96
WIRE -448 48 -448 -176
WIRE -336 48 -448 48
WIRE 416 48 416 -96
WIRE 416 48 128 48
WIRE 480 48 416 48
WIRE -1152 64 -1152 -48
WIRE 640 64 640 -96
WIRE 640 64 544 64
WIRE 704 64 640 64
WIRE 480 80 384 80
WIRE -448 96 -448 48
WIRE 128 208 128 48
WIRE -1152 288 -1152 144
WIRE -448 416 -448 176
FLAG -1152 288 0
FLAG -1152 -48 Vcc
FLAG -448 416 0
FLAG -656 -32 0
FLAG -336 48 Ue
FLAG 512 32 Vcc
FLAG 384 80 Ue
FLAG 416 -352 Vref
FLAG 512 96 0
FLAG -96 160 0
FLAG -96 80 Vref
SYMBOL voltage -1152 48 R0
WINDOW 123 0 0 Left 2
WINDOW 39 0 0 Left 2
SYMATTR InstName V1
SYMATTR Value 3.3
SYMBOL res -464 80 R0
SYMATTR InstName RTC1
SYMATTR Value {R}
SYMBOL current -656 -32 R180
WINDOW 0 24 80 Left 2
WINDOW 3 24 0 Left 2
WINDOW 123 0 0 Left 2
WINDOW 39 0 0 Left 2
SYMATTR InstName I1
SYMATTR Value 1m
SYMBOL Opamps\\opamp2 512 0 R0
SYMATTR InstName U1
SYMATTR Value OPA340
SYMATTR SpiceModel OPA340
SYMBOL res 576 -112 R90
WINDOW 0 0 56 VBottom 2
WINDOW 3 32 56 VTop 2
SYMATTR InstName R1
SYMATTR Value 100k
SYMBOL res 432 -128 R180
WINDOW 0 36 76 Left 2
WINDOW 3 36 40 Left 2
SYMATTR InstName R2
SYMATTR Value 2.7k
SYMBOL voltage -96 64 R0
WINDOW 123 0 0 Left 2
WINDOW 39 0 0 Left 2
SYMATTR InstName V2
SYMATTR Value 0.1
TEXT -1168 -424 Left 2 !.step param Temp1 0 200 1\n.inc OPA340.LIB\n.param TK=273.15\n.param T0=TK+25\n.param R=100*(1+Temp1*0.00385)\n.op\n;tran 0.1 startup
